  
       XFOIL         Version 6.99
  
 Calculated polar for:                                                 
  
 1 1 Reynolds number fixed          Mach number fixed         
  
 xtrf =   1.000 (top)        1.000 (bottom)  
 Mach =   0.000     Re =     0.003 e 6     Ncrit =   9.000  9.000
  
   alpha    CL        CD       CDp       CM     Top_Xtr  Bot_Xtr  Top_Itr  Bot_Itr
  ------ -------- --------- --------- -------- -------- -------- -------- --------
 -10.000  -0.5764   0.13110   0.10198   0.0512   1.0000   1.0000   1.0000 263.0000
  -8.000  -0.5040   0.10703   0.07153   0.0386   1.0000   1.0000   1.0000 263.0000
  -6.000  -0.4397   0.08372   0.04660   0.0252   1.0000   1.0000   1.0000 263.0000
  -4.000  -0.3998   0.06227   0.02654   0.0085   1.0000   1.0000   1.0000 263.0000
  -2.000  -0.2002   0.05630   0.00819  -0.0038   1.0000   1.0000   1.0000 263.0000
   0.000  -0.0000   0.05527   0.00379   0.0000   1.0000   1.0000   1.0000 263.0000
   2.000   0.2002   0.05630   0.00819   0.0038   1.0000   1.0000   1.0000 263.0000
   4.000   0.3998   0.06227   0.02655  -0.0085   1.0000   1.0000   1.0000 263.0000
   6.000   0.4400   0.08371   0.04663  -0.0252   1.0000   1.0000   1.0000 263.0000
   8.000   0.5044   0.10704   0.07158  -0.0386   1.0000   1.0000   1.0000 263.0000
  10.000   0.5769   0.13113   0.10206  -0.0513   1.0000   1.0000   1.0000 263.0000
  12.000   0.6539   0.15531   0.13865  -0.0646   1.0000   1.0000   1.0000 263.0000
  14.000   0.7330   0.17949   0.18161  -0.0789   1.0000   1.0000   1.0000 263.0000
  16.000   0.8120   0.20370   0.23095  -0.0943   1.0000   1.0000   1.0000 263.0000
  18.000   0.8897   0.22806   0.28645  -0.1106   1.0000   1.0000   1.0000 263.0000
  20.000   0.9659   0.25270   0.34820  -0.1277   1.0000   1.0000   1.0000 263.0000
 -10.000  -0.5764   0.13110   0.10198   0.0512   1.0000   1.0000   1.0000 263.0000
  -8.000  -0.5040   0.10703   0.07153   0.0386   1.0000   1.0000   1.0000 263.0000
  -6.000  -0.4397   0.08372   0.04660   0.0252   1.0000   1.0000   1.0000 263.0000
  -4.000  -0.3998   0.06227   0.02654   0.0085   1.0000   1.0000   1.0000 263.0000
  -2.000  -0.2002   0.05630   0.00819  -0.0038   1.0000   1.0000   1.0000 263.0000
   0.000  -0.0000   0.05527   0.00379   0.0000   1.0000   1.0000   1.0000 263.0000
   2.000   0.2002   0.05630   0.00819   0.0038   1.0000   1.0000   1.0000 263.0000
   4.000   0.3998   0.06227   0.02655  -0.0085   1.0000   1.0000   1.0000 263.0000
   6.000   0.4400   0.08371   0.04663  -0.0252   1.0000   1.0000   1.0000 263.0000
   8.000   0.5044   0.10704   0.07158  -0.0386   1.0000   1.0000   1.0000 263.0000
  10.000   0.5769   0.13113   0.10206  -0.0513   1.0000   1.0000   1.0000 263.0000
  12.000   0.6539   0.15531   0.13865  -0.0646   1.0000   1.0000   1.0000 263.0000
  14.000   0.7330   0.17949   0.18161  -0.0789   1.0000   1.0000   1.0000 263.0000
  16.000   0.8120   0.20370   0.23095  -0.0943   1.0000   1.0000   1.0000 263.0000
  18.000   0.8897   0.22806   0.28645  -0.1106   1.0000   1.0000   1.0000 263.0000
  20.000   0.9659   0.25270   0.34820  -0.1277   1.0000   1.0000   1.0000 263.0000
 -10.000  -0.5764   0.13110   0.10198   0.0512   1.0000   1.0000   1.0000 263.0000
  -8.000  -0.5040   0.10703   0.07153   0.0386   1.0000   1.0000   1.0000 263.0000
  -6.000  -0.4397   0.08372   0.04660   0.0252   1.0000   1.0000   1.0000 263.0000
  -4.000  -0.3998   0.06227   0.02654   0.0085   1.0000   1.0000   1.0000 263.0000
  -2.000  -0.2002   0.05630   0.00819  -0.0038   1.0000   1.0000   1.0000 263.0000
   0.000  -0.0000   0.05527   0.00379   0.0000   1.0000   1.0000   1.0000 263.0000
   2.000   0.2002   0.05630   0.00819   0.0038   1.0000   1.0000   1.0000 263.0000
   4.000   0.3998   0.06227   0.02655  -0.0085   1.0000   1.0000   1.0000 263.0000
   6.000   0.4400   0.08371   0.04663  -0.0252   1.0000   1.0000   1.0000 263.0000
   8.000   0.5044   0.10704   0.07158  -0.0386   1.0000   1.0000   1.0000 263.0000
  10.000   0.5769   0.13113   0.10206  -0.0513   1.0000   1.0000   1.0000 263.0000
  12.000   0.6539   0.15531   0.13865  -0.0646   1.0000   1.0000   1.0000 263.0000
  14.000   0.7330   0.17949   0.18161  -0.0789   1.0000   1.0000   1.0000 263.0000
  16.000   0.8120   0.20370   0.23095  -0.0943   1.0000   1.0000   1.0000 263.0000
  18.000   0.8897   0.22806   0.28645  -0.1106   1.0000   1.0000   1.0000 263.0000
  20.000   0.9659   0.25270   0.34820  -0.1277   1.0000   1.0000   1.0000 263.0000
