  
       XFOIL         Version 6.99
  
 Calculated polar for:                                                 
  
 1 1 Reynolds number fixed          Mach number fixed         
  
 xtrf =   1.000 (top)        1.000 (bottom)  
 Mach =   0.000     Re =     0.004 e 6     Ncrit =   9.000  9.000
  
   alpha    CL        CD       CDp       CM     Top_Xtr  Bot_Xtr  Top_Itr  Bot_Itr
  ------ -------- --------- --------- -------- -------- -------- -------- --------
 -10.000  -0.5744   0.12887   0.10202   0.0524   1.0000   1.0000   1.0000 263.0000
  -8.000  -0.5014   0.10437   0.07163   0.0401   1.0000   1.0000   1.0000 263.0000
  -6.000  -0.4346   0.08082   0.04665   0.0272   1.0000   1.0000   1.0000 263.0000
  -4.000  -0.3870   0.05933   0.02644   0.0108   1.0000   1.0000   1.0000 263.0000
  -2.000  -0.2008   0.05197   0.00801  -0.0041   1.0000   1.0000   1.0000 263.0000
   0.000  -0.0000   0.05099   0.00361   0.0000   1.0000   1.0000   1.0000 263.0000
   2.000   0.2008   0.05197   0.00801   0.0041   1.0000   1.0000   1.0000 263.0000
   4.000   0.3870   0.05933   0.02644  -0.0108   1.0000   1.0000   1.0000 263.0000
   6.000   0.4349   0.08081   0.04668  -0.0273   1.0000   1.0000   1.0000 263.0000
   8.000   0.5018   0.10437   0.07169  -0.0402   1.0000   1.0000   1.0000 263.0000
  10.000   0.5749   0.12889   0.10211  -0.0525   1.0000   1.0000   1.0000 263.0000
  12.000   0.6521   0.15340   0.13864  -0.0656   1.0000   1.0000   1.0000 263.0000
  14.000   0.7314   0.17787   0.18153  -0.0798   1.0000   1.0000   1.0000 263.0000
  16.000   0.8105   0.20234   0.23083  -0.0950   1.0000   1.0000   1.0000 263.0000
  18.000   0.8883   0.22694   0.28631  -0.1113   1.0000   1.0000   1.0000 263.0000
  20.000   0.9645   0.25181   0.34800  -0.1284   1.0000   1.0000   1.0000 263.0000
