  
       XFOIL         Version 6.99
  
 Calculated polar for:                                                 
  
 1 1 Reynolds number fixed          Mach number fixed         
  
 xtrf =   1.000 (top)        1.000 (bottom)  
 Mach =   0.000     Re =     0.004 e 6     Ncrit =   9.000  9.000
  
   alpha    CL        CD       CDp       CM     Top_Xtr  Bot_Xtr  Top_Itr  Bot_Itr
  ------ -------- --------- --------- -------- -------- -------- -------- --------
 -10.000  -0.5731   0.12708   0.10212   0.0534   1.0000   1.0000   1.0000 263.0000
  -8.000  -0.4998   0.10227   0.07176   0.0414   1.0000   1.0000   1.0000 263.0000
  -6.000  -0.4311   0.07849   0.04674   0.0289   1.0000   1.0000   1.0000 263.0000
  -4.000  -0.3769   0.05711   0.02639   0.0127   1.0000   1.0000   1.0000 263.0000
  -2.000  -0.2013   0.04849   0.00788  -0.0044   1.0000   1.0000   1.0000 263.0000
   0.000  -0.0000   0.04755   0.00346   0.0000   1.0000   1.0000   1.0000 263.0000
   2.000   0.2013   0.04849   0.00788   0.0044   1.0000   1.0000   1.0000 263.0000
   4.000   0.3769   0.05711   0.02639  -0.0127   1.0000   1.0000   1.0000 263.0000
   6.000   0.4313   0.07849   0.04676  -0.0289   1.0000   1.0000   1.0000 263.0000
   8.000   0.5002   0.10227   0.07182  -0.0415   1.0000   1.0000   1.0000 263.0000
  10.000   0.5736   0.12710   0.10221  -0.0535   1.0000   1.0000   1.0000 263.0000
  12.000   0.6510   0.15191   0.13869  -0.0665   1.0000   1.0000   1.0000 263.0000
  16.000   0.8094   0.20132   0.23079  -0.0957   1.0000   1.0000   1.0000 263.0000
  18.000   0.8873   0.22622   0.28624  -0.1118   1.0000   1.0000   1.0000 263.0000
  20.000   0.9633   0.25180   0.34783  -0.1289   1.0000   1.0000   1.0000 263.0000
