  
       XFOIL         Version 6.99
  
 Calculated polar for:                                                 
  
 1 1 Reynolds number fixed          Mach number fixed         
  
 xtrf =   1.000 (top)        1.000 (bottom)  
 Mach =   0.000     Re =     0.004 e 6     Ncrit =   9.000  9.000
  
   alpha    CL        CD       CDp       CM     Top_Xtr  Bot_Xtr  Top_Itr  Bot_Itr
  ------ -------- --------- --------- -------- -------- -------- -------- --------
 -10.000  -0.5723   0.12563   0.10224   0.0542   1.0000   1.0000   1.0000 263.0000
  -8.000  -0.4988   0.10055   0.07192   0.0424   1.0000   1.0000   1.0000 263.0000
  -6.000  -0.4285   0.07659   0.04683   0.0302   1.0000   1.0000   1.0000 263.0000
  -4.000  -0.3692   0.05529   0.02639   0.0144   1.0000   1.0000   1.0000 263.0000
  -2.000  -0.2018   0.04563   0.00779  -0.0046   1.0000   1.0000   1.0000 263.0000
   0.000   0.0000   0.04473   0.00334  -0.0000   1.0000   1.0000   1.0000 263.0000
   2.000   0.2018   0.04563   0.00779   0.0046   1.0000   1.0000   1.0000 263.0000
   4.000   0.3692   0.05529   0.02639  -0.0144   1.0000   1.0000   1.0000 263.0000
   6.000   0.4288   0.07659   0.04686  -0.0303   1.0000   1.0000   1.0000 263.0000
   8.000   0.4992   0.10055   0.07198  -0.0425   1.0000   1.0000   1.0000 263.0000
  10.000   0.5728   0.12565   0.10233  -0.0544   1.0000   1.0000   1.0000 263.0000
  12.000   0.6502   0.15070   0.13877  -0.0671   1.0000   1.0000   1.0000 263.0000
  14.000   0.7294   0.17563   0.18154  -0.0811   1.0000   1.0000   1.0000 263.0000
  16.000   0.8086   0.20072   0.23076  -0.0962   1.0000   1.0000   1.0000 263.0000
  18.000   0.8863   0.22622   0.28613  -0.1123   1.0000   1.0000   1.0000 263.0000
  20.000   0.9623   0.25208   0.34768  -0.1293   1.0000   1.0000   1.0000 263.0000
