  
       XFOIL         Version 6.99
  
 Calculated polar for:                                                 
  
 1 1 Reynolds number fixed          Mach number fixed         
  
 xtrf =   1.000 (top)        1.000 (bottom)  
 Mach =   0.000     Re =     0.005 e 6     Ncrit =   9.000  9.000
  
   alpha    CL        CD       CDp       CM     Top_Xtr  Bot_Xtr  Top_Itr  Bot_Itr
  ------ -------- --------- --------- -------- -------- -------- -------- --------
  -8.000  -0.4981   0.09910   0.07207   0.0434   1.0000   1.0000   1.0000 263.0000
  -6.000  -0.4266   0.07501   0.04694   0.0314   1.0000   1.0000   1.0000 263.0000
  -4.000  -0.3631   0.05375   0.02641   0.0159   1.0000   1.0000   1.0000 263.0000
  -2.000  -0.2024   0.04323   0.00774  -0.0049   1.0000   1.0000   1.0000 263.0000
   0.000   0.0000   0.04236   0.00323   0.0000   1.0000   1.0000   1.0000 263.0000
   2.000   0.2024   0.04323   0.00774   0.0049   1.0000   1.0000   1.0000 263.0000
   4.000   0.3632   0.05375   0.02642  -0.0159   1.0000   1.0000   1.0000 263.0000
   6.000   0.4269   0.07501   0.04697  -0.0314   1.0000   1.0000   1.0000 263.0000
   8.000   0.4986   0.09910   0.07214  -0.0435   1.0000   1.0000   1.0000 263.0000
  10.000   0.5723   0.12443   0.10246  -0.0551   1.0000   1.0000   1.0000 263.0000
  12.000   0.6496   0.14971   0.13885  -0.0677   1.0000   1.0000   1.0000 263.0000
  14.000   0.7287   0.17499   0.18157  -0.0816   1.0000   1.0000   1.0000 263.0000
  16.000   0.8078   0.20051   0.23072  -0.0966   1.0000   1.0000   1.0000 263.0000
  18.000   0.8856   0.22626   0.28607  -0.1127   1.0000   1.0000   1.0000 263.0000
  20.000   0.9615   0.25238   0.34756  -0.1296   1.0000   1.0000   1.0000 263.0000
