  
       XFOIL         Version 6.99
  
 Calculated polar for:                                                 
  
 1 1 Reynolds number fixed          Mach number fixed         
  
 xtrf =   1.000 (top)        1.000 (bottom)  
 Mach =   0.000     Re =     0.005 e 6     Ncrit =   9.000  9.000
  
   alpha    CL        CD       CDp       CM     Top_Xtr  Bot_Xtr  Top_Itr  Bot_Itr
  ------ -------- --------- --------- -------- -------- -------- -------- --------
 -10.000  -0.5081   0.12966   0.09141   0.0460   1.0000   1.0000   1.0000 263.0000
  -8.000  -0.4862   0.10541   0.07029   0.0455   1.0000   0.9700   1.0000 259.2267
  -6.000  -0.4924   0.08413   0.05286   0.0499   1.0000   0.8865   1.0000 248.7350
  -4.000  -0.3583   0.05243   0.02645   0.0172   1.0000   1.0000   1.0000 263.0000
  -2.000  -0.2030   0.04117   0.00771  -0.0051   1.0000   1.0000   1.0000 263.0000
   0.000   0.0000   0.04033   0.00314   0.0000   1.0000   1.0000   1.0000 263.0000
   2.000   0.2030   0.04117   0.00771   0.0051   1.0000   1.0000   1.0000 263.0000
   4.000   0.3584   0.05243   0.02646  -0.0172   1.0000   1.0000   1.0000 263.0000
   6.000   0.5489   0.08407   0.05841  -0.0585   0.8573   1.0000  18.9219 263.0000
   8.000   0.5526   0.10420   0.07920  -0.0573   0.9401   1.0000   8.5283 263.0000
  10.000   0.5720   0.12340   0.10260  -0.0557   1.0000   1.0000   1.0000 263.0000
  12.000   0.6491   0.14894   0.13893  -0.0683   1.0000   1.0000   1.0000 263.0000
  14.000   0.7281   0.17460   0.18160  -0.0821   1.0000   1.0000   1.0000 263.0000
  16.000   0.8072   0.20036   0.23071  -0.0970   1.0000   1.0000   1.0000 263.0000
  18.000   0.8849   0.22634   0.28602  -0.1130   1.0000   1.0000   1.0000 263.0000
  20.000   0.9608   0.25268   0.34747  -0.1299   1.0000   1.0000   1.0000 263.0000
