  
       XFOIL         Version 6.99
  
 Calculated polar for:                                                 
  
 1 1 Reynolds number fixed          Mach number fixed         
  
 xtrf =   1.000 (top)        1.000 (bottom)  
 Mach =   0.000     Re =     0.006 e 6     Ncrit =   9.000  9.000
  
   alpha    CL        CD       CDp       CM     Top_Xtr  Bot_Xtr  Top_Itr  Bot_Itr
  ------ -------- --------- --------- -------- -------- -------- -------- --------
 -10.000  -0.5712   0.12250   0.10262   0.0562   1.0000   1.0000   1.0000 263.0000
  -8.000  -0.5899   0.10749   0.08400   0.0652   1.0000   0.8873   1.0000 248.8455
  -6.000  -0.5988   0.08697   0.06292   0.0650   1.0000   0.7768   1.0000 234.9586
  -2.000  -0.2037   0.03938   0.00772  -0.0053   1.0000   1.0000   1.0000 263.0000
   0.000   0.0000   0.03857   0.00306   0.0000   1.0000   1.0000   1.0000 263.0000
   2.000   0.2037   0.03938   0.00772   0.0053   1.0000   1.0000   1.0000 263.0000
   6.000   0.5991   0.08697   0.06295  -0.0650   0.7767   1.0000  29.0495 263.0000
   8.000   0.5904   0.10750   0.08407  -0.0653   0.8873   1.0000  15.1581 263.0000
  10.000   0.5718   0.12251   0.10273  -0.0563   1.0000   1.0000   1.0000 263.0000
  12.000   0.6487   0.14839   0.13900  -0.0687   1.0000   1.0000   1.0000 263.0000
  14.000   0.7276   0.17428   0.18163  -0.0824   1.0000   1.0000   1.0000 263.0000
  16.000   0.8067   0.20024   0.23070  -0.0973   1.0000   1.0000   1.0000 263.0000
  18.000   0.8844   0.22643   0.28598  -0.1133   1.0000   1.0000   1.0000 263.0000
  20.000   0.9599   0.25289   0.34736  -0.1302   1.0000   1.0000   1.0000 263.0000
