xflr5 v6.57

 Calculated polar for: simplex0401

 1 1 Reynolds number fixed          Mach number fixed         

 xtrf =   1.000 (top)        1.000 (bottom)
 Mach =   0.000     Re =     0.005 e 6     Ncrit =   9.000

  alpha     CL        CD       CDp       Cm    Top Xtr Bot Xtr   Cpmin    Chinge    XCp    
 ------- -------- --------- --------- -------- ------- ------- -------- --------- ---------
 -17.500  -0.6585   0.20211   0.17899   0.0600  1.0000  1.0000  -1.1857   0.0000   0.0000   0.0000   0.3402
 -17.000  -0.6391   0.19598   0.17280   0.0562  1.0000  1.0000  -1.1763   0.0000   0.0000   0.0000   0.3373
 -16.500  -0.6196   0.18988   0.16665   0.0525  1.0000  1.0000  -1.1641   0.0000   0.0000   0.0000   0.3343
 -16.000  -0.6000   0.18381   0.16053   0.0489  1.0000  1.0000  -1.1489   0.0000   0.0000   0.0000   0.3312
 -15.500  -0.5804   0.17777   0.15427   0.0454  1.0000  1.0000  -1.1307   0.0000   0.0000   0.0000   0.3281
 -15.000  -0.5608   0.17176   0.14823   0.0419  1.0000  1.0000  -1.1085   0.0000   0.0000   0.0000   0.3248
 -14.500  -0.5412   0.16578   0.14223   0.0386  1.0000  1.0000  -1.0896   0.0000   0.0000   0.0000   0.3215
 -14.000  -0.5217   0.15983   0.13626   0.0353  1.0000  1.0000  -1.0832   0.0000   0.0000   0.0000   0.3180
 -13.500  -0.5022   0.15395   0.13036   0.0321  1.0000  1.0000  -1.0740   0.0000   0.0000   0.0000   0.3144
 -13.000  -0.4826   0.14813   0.12454   0.0290  1.0000  1.0000  -1.0618   0.0000   0.0000   0.0000   0.3106
 -12.500  -0.4632   0.14233   0.11875   0.0260  1.0000  1.0000  -1.0462   0.0000   0.0000   0.0000   0.3067
 -12.000  -0.4439   0.13654   0.11271   0.0231  1.0000  1.0000  -1.0274   0.0000   0.0000   0.0000   0.3027
 -11.500  -0.4247   0.13080   0.10700   0.0202  1.0000  1.0000  -1.0084   0.0000   0.0000   0.0000   0.2984
 -11.000  -0.4056   0.12510   0.10133   0.0175  1.0000  1.0000  -1.0053   0.0000   0.0000   0.0000   0.2940
 -10.500  -0.3866   0.11945   0.09572   0.0148  1.0000  1.0000  -0.9996   0.0000   0.0000   0.0000   0.2893
 -10.000  -0.3677   0.11385   0.09017   0.0123  1.0000  1.0000  -0.9908   0.0000   0.0000   0.0000   0.2843
  -9.500  -0.3489   0.10833   0.08470   0.0098  1.0000  1.0000  -0.9786   0.0000   0.0000   0.0000   0.2789
  -9.000  -0.3301   0.10289   0.07934   0.0074  1.0000  1.0000  -0.9626   0.0000   0.0000   0.0000   0.2732
  -8.500  -0.3112   0.09755   0.07410   0.0050  1.0000  1.0000  -0.9463   0.0000   0.0000   0.0000   0.2670
  -8.000  -0.2924   0.09234   0.06877   0.0028  1.0000  1.0000  -0.9463   0.0000   0.0000   0.0000   0.2602
  -7.500  -0.2734   0.08728   0.06383   0.0005  1.0000  1.0000  -0.9430   0.0000   0.0000   0.0000   0.2526
  -7.000  -0.2543   0.08241   0.05909  -0.0017  1.0000  1.0000  -0.9364   0.0000   0.0000   0.0000   0.2441
  -6.500  -0.2352   0.07773   0.05457  -0.0038  1.0000  1.0000  -0.9261   0.0000   0.0000   0.0000   0.2344
  -6.000  -0.2161   0.07327   0.05030  -0.0058  1.0000  1.0000  -0.9119   0.0000   0.0000   0.0000   0.2234
  -5.500  -0.2055   0.06962   0.04696  -0.0057  1.0000  0.9906  -0.9037   0.0000   0.0000   0.0000   0.2225
  -5.000  -0.2143   0.06757   0.04532  -0.0012  1.0000  0.9655  -0.9236   0.0000   0.0000   0.0000   0.2446
  -4.500  -0.2147   0.06474   0.04293   0.0011  1.0000  0.9443  -0.9368   0.0000   0.0000   0.0000   0.2556
  -4.000  -0.2101   0.06159   0.04007   0.0023  1.0000  0.9283  -0.9454   0.0000   0.0000   0.0000   0.2610
  -3.500  -0.2013   0.05825   0.03718   0.0025  1.0000  0.9173  -0.9490   0.0000   0.0000   0.0000   0.2625
  -3.000  -0.1869   0.05478   0.03414   0.0015  1.0000  0.9137  -0.9456   0.0000   0.0000   0.0000   0.2582
  -2.500  -0.1585   0.05102   0.03074  -0.0024  1.0000  0.9234  -0.9270   0.0000   0.0000   0.0000   0.2347
  -2.000  -0.1073   0.04698   0.02699  -0.0115  1.0000  0.9698  -0.8919   0.0000   0.0000   0.0000   0.1421
  -1.500  -0.0814   0.04445   0.02478  -0.0157  1.0000  1.0000  -0.8924   0.0000   0.0000   0.0000   0.0565
  -1.000  -0.0134   0.04301   0.02246  -0.0291  1.0000  1.0000  -0.8675   0.0000   0.0000   0.0000  -1.9238
  -0.500   0.1062   0.04307   0.02005  -0.0501  1.0000  1.0000  -0.7939   0.0000   0.0000   0.0000   0.7230
   0.000   0.2061   0.04397   0.01828  -0.0615  1.0000  1.0000  -0.7564   0.0000   0.0000   0.0000   0.5489
   0.500   0.2782   0.04484   0.01689  -0.0645  1.0000  1.0000  -0.7169   0.0000   0.0000   0.0000   0.4817
   1.000   0.3352   0.04559   0.01589  -0.0638  1.0000  1.0000  -0.6708   0.0000   0.0000   0.0000   0.4399
   1.500   0.3849   0.04634   0.01526  -0.0620  1.0000  1.0000  -0.6358   0.0000   0.0000   0.0000   0.4104
   2.000   0.4307   0.04717   0.01507  -0.0602  1.0000  1.0000  -0.5737   0.0000   0.0000   0.0000   0.3887
   2.500   0.4740   0.04816   0.01543  -0.0587  1.0000  1.0000  -0.5327   0.0000   0.0000   0.0000   0.3724
   3.000   0.5154   0.04935   0.01634  -0.0575  1.0000  1.0000  -0.6642   0.0000   0.0000   0.0000   0.3597
   3.500   0.5550   0.05081   0.01789  -0.0566  1.0000  1.0000  -0.8453   0.0000   0.0000   0.0000   0.3497
   4.000   0.5928   0.05261   0.02016  -0.0559  1.0000  1.0000  -1.0758   0.0000   0.0000   0.0000   0.3418
   4.500   0.6281   0.05482   0.02306  -0.0556  1.0000  1.0000  -1.3048   0.0000   0.0000   0.0000   0.3356
   5.000   0.6602   0.05755   0.02681  -0.0557  1.0000  1.0000  -1.5601   0.0000   0.0000   0.0000   0.3311
   5.500   0.6885   0.06096   0.03130  -0.0564  1.0000  1.0000  -1.8039   0.0000   0.0000   0.0000   0.3282
   6.000   0.7122   0.06526   0.03675  -0.0580  1.0000  1.0000  -2.0114   0.0000   0.0000   0.0000   0.3273
   6.500   0.7306   0.07065   0.04336  -0.0607  1.0000  1.0000  -2.1718   0.0000   0.0000   0.0000   0.3285
   7.000   0.7434   0.07729   0.05097  -0.0647  1.0000  1.0000  -2.2803   0.0000   0.0000   0.0000   0.3320
   7.500   0.7518   0.08512   0.05953  -0.0697  1.0000  1.0000  -2.3219   0.0000   0.0000   0.0000   0.3373
   8.000   0.7579   0.09377   0.06870  -0.0752  1.0000  1.0000  -2.3136   0.0000   0.0000   0.0000   0.3434
   8.500   0.7638   0.10281   0.07809  -0.0806  1.0000  1.0000  -2.2766   0.0000   0.0000   0.0000   0.3494
   9.000   0.7707   0.11189   0.08744  -0.0857  1.0000  1.0000  -2.2276   0.0000   0.0000   0.0000   0.3547
   9.500   0.7793   0.12086   0.09661  -0.0905  1.0000  1.0000  -2.1758   0.0000   0.0000   0.0000   0.3592
  10.000   0.7896   0.12962   0.10554  -0.0949  1.0000  1.0000  -2.1255   0.0000   0.0000   0.0000   0.3629
  11.000   0.8151   0.14652   0.12280  -0.1033  1.0000  1.0000  -2.0334   0.0000   0.0000   0.0000   0.3684
  11.500   0.8299   0.15469   0.13108  -0.1073  1.0000  1.0000  -1.9916   0.0000   0.0000   0.0000   0.3706
  12.000   0.8455   0.16278   0.13927  -0.1113  1.0000  1.0000  -1.9514   0.0000   0.0000   0.0000   0.3724
  12.500   0.8620   0.17078   0.14737  -0.1153  1.0000  1.0000  -1.9126   0.0000   0.0000   0.0000   0.3740
  13.000   0.8790   0.17869   0.15539  -0.1193  1.0000  1.0000  -1.8750   0.0000   0.0000   0.0000   0.3754
  13.500   0.8967   0.18656   0.16344  -0.1233  1.0000  1.0000  -1.8432   0.0000   0.0000   0.0000   0.3766
  14.000   0.9146   0.19436   0.17136  -0.1273  1.0000  1.0000  -1.8310   0.0000   0.0000   0.0000   0.3777
  14.500   0.9329   0.20213   0.17924  -0.1314  1.0000  1.0000  -1.8177   0.0000   0.0000   0.0000   0.3788
  15.000   0.9513   0.20988   0.18710  -0.1355  1.0000  1.0000  -1.8031   0.0000   0.0000   0.0000   0.3797
  15.500   0.9699   0.21762   0.19504  -0.1396  1.0000  1.0000  -1.7870   0.0000   0.0000   0.0000   0.3806
  16.000   0.9886   0.22535   0.20291  -0.1438  1.0000  1.0000  -1.7702   0.0000   0.0000   0.0000   0.3815
  16.500   1.0073   0.23309   0.21079  -0.1481  1.0000  1.0000  -1.7519   0.0000   0.0000   0.0000   0.3824
  17.000   1.0260   0.24084   0.21869  -0.1524  1.0000  1.0000  -1.7415   0.0000   0.0000   0.0000   0.3832
  17.500   1.0447   0.24860   0.22667  -0.1567  1.0000  1.0000  -1.7473   0.0000   0.0000   0.0000   0.3839
  18.000   1.0633   0.25636   0.23460  -0.1611  1.0000  1.0000  -1.7500   0.0000   0.0000   0.0000   0.3847
  18.500   1.0818   0.26414   0.24255  -0.1656  1.0000  1.0000  -1.7495   0.0000   0.0000   0.0000   0.3855
  19.000   1.1003   0.27194   0.25058  -0.1701  1.0000  1.0000  -1.7462   0.0000   0.0000   0.0000   0.3862
  19.500   1.1186   0.27975   0.25859  -0.1746  1.0000  1.0000  -1.7406   0.0000   0.0000   0.0000   0.3869
  20.000   1.1368   0.28760   0.26667  -0.1792  1.0000  1.0000  -1.7323   0.0000   0.0000   0.0000   0.3876


