xflr5 v6.57

 Calculated polar for: simplex0201

 1 1 Reynolds number fixed          Mach number fixed         

 xtrf =   1.000 (top)        1.000 (bottom)
 Mach =   0.000     Re =     0.006 e 6     Ncrit =   9.000

  alpha     CL        CD       CDp       Cm    Top Xtr Bot Xtr   Cpmin    Chinge    XCp    
 ------- -------- --------- --------- -------- ------- ------- -------- --------- ---------
 -17.500  -0.7606   0.21461   0.19379   0.0854  1.0000  1.0000  -1.2548   0.0000   0.0000   0.0000   0.3579
 -17.000  -0.7412   0.20795   0.18704   0.0814  1.0000  1.0000  -1.2393   0.0000   0.0000   0.0000   0.3559
 -16.500  -0.7216   0.20131   0.18032   0.0776  1.0000  1.0000  -1.2198   0.0000   0.0000   0.0000   0.3539
 -16.000  -0.7021   0.19470   0.17363   0.0738  1.0000  1.0000  -1.1959   0.0000   0.0000   0.0000   0.3519
 -15.500  -0.6825   0.18812   0.16698   0.0701  1.0000  1.0000  -1.1780   0.0000   0.0000   0.0000   0.3498
 -15.000  -0.6629   0.18156   0.16017   0.0665  1.0000  1.0000  -1.1736   0.0000   0.0000   0.0000   0.3477
 -14.500  -0.6433   0.17503   0.15359   0.0630  1.0000  1.0000  -1.1650   0.0000   0.0000   0.0000   0.3455
 -14.000  -0.6237   0.16853   0.14704   0.0596  1.0000  1.0000  -1.1528   0.0000   0.0000   0.0000   0.3433
 -13.500  -0.6042   0.16205   0.14051   0.0562  1.0000  1.0000  -1.1367   0.0000   0.0000   0.0000   0.3411
 -13.000  -0.5848   0.15559   0.13402   0.0529  1.0000  1.0000  -1.1163   0.0000   0.0000   0.0000   0.3388
 -12.500  -0.5656   0.14916   0.12755   0.0498  1.0000  1.0000  -1.1023   0.0000   0.0000   0.0000   0.3365
 -12.000  -0.5464   0.14274   0.12096   0.0467  1.0000  1.0000  -1.1014   0.0000   0.0000   0.0000   0.3342
 -11.500  -0.5273   0.13636   0.11456   0.0437  1.0000  1.0000  -1.0971   0.0000   0.0000   0.0000   0.3318
 -11.000  -0.5085   0.13001   0.10820   0.0408  1.0000  1.0000  -1.0895   0.0000   0.0000   0.0000   0.3294
 -10.500  -0.4897   0.12372   0.10190   0.0380  1.0000  1.0000  -1.0781   0.0000   0.0000   0.0000   0.3269
 -10.000  -0.4709   0.11750   0.09569   0.0353  1.0000  1.0000  -1.0626   0.0000   0.0000   0.0000   0.3243
  -9.500  -0.4523   0.11134   0.08954   0.0326  1.0000  1.0000  -1.0525   0.0000   0.0000   0.0000   0.3216
  -9.000  -0.4336   0.10524   0.08339   0.0300  1.0000  1.0000  -1.0558   0.0000   0.0000   0.0000   0.3188
  -8.500  -0.4149   0.09924   0.07743   0.0274  1.0000  1.0000  -1.0560   0.0000   0.0000   0.0000   0.3158
  -8.000  -0.3960   0.09336   0.07160   0.0249  1.0000  1.0000  -1.0527   0.0000   0.0000   0.0000   0.3126
  -7.500  -0.4153   0.09182   0.07036   0.0316  1.0000  0.9601  -1.0787   0.0000   0.0000   0.0000   0.3260
  -7.000  -0.4344   0.08988   0.06877   0.0371  1.0000  0.9151  -1.1068   0.0000   0.0000   0.0000   0.3355
  -6.500  -0.4499   0.08733   0.06652   0.0410  1.0000  0.8757  -1.1334   0.0000   0.0000   0.0000   0.3412
  -6.000  -0.4531   0.08330   0.06281   0.0418  1.0000  0.8406  -1.1481   0.0000   0.0000   0.0000   0.3424
  -5.500  -0.4558   0.07919   0.05905   0.0422  1.0000  0.8104  -1.1618   0.0000   0.0000   0.0000   0.3429
  -5.000  -0.4580   0.07497   0.05521   0.0424  1.0000  0.7850  -1.1789   0.0000   0.0000   0.0000   0.3429
  -4.500  -0.4608   0.07071   0.05141   0.0427  1.0000  0.7639  -1.2062   0.0000   0.0000   0.0000   0.3430
  -4.000  -0.4465   0.06544   0.04636   0.0398  1.0000  0.7485  -1.2200   0.0000   0.0000   0.0000   0.3395
  -3.500  -0.4285   0.06028   0.04145   0.0361  1.0000  0.7386  -1.2300   0.0000   0.0000   0.0000   0.3346
  -3.000  -0.3907   0.05454   0.03576   0.0299  1.0000  0.7414  -1.2179   0.0000   0.0000   0.0000   0.3269
  -2.500  -0.3358   0.04871   0.02989   0.0219  1.0000  0.7638  -1.1830   0.0000   0.0000   0.0000   0.3154
  -2.000  -0.1837   0.04034   0.02157  -0.0034  1.0000  0.9652  -1.1015   0.0000   0.0000   0.0000   0.2319
  -1.500  -0.1096   0.03838   0.01816  -0.0200  1.0000  1.0000  -1.1095   0.0000   0.0000   0.0000   0.0678
  -1.000   0.0049   0.03859   0.01449  -0.0354  1.0000  1.0000  -1.0869   0.0000   0.0000   0.0000   7.4252
  -0.500   0.0761   0.03887   0.01185  -0.0362  1.0000  1.0000  -1.0907   0.0000   0.0000   0.0000   0.7256
   0.000   0.1315   0.03900   0.00990  -0.0342  1.0000  1.0000  -1.0453   0.0000   0.0000   0.0000   0.5103
   0.500   0.1822   0.03916   0.00869  -0.0324  1.0000  1.0000  -0.9198   0.0000   0.0000   0.0000   0.4280
   1.000   0.2310   0.03939   0.00817  -0.0310  1.0000  1.0000  -0.7650   0.0000   0.0000   0.0000   0.3839
   1.500   0.2788   0.03974   0.00829  -0.0297  1.0000  1.0000  -0.7831   0.0000   0.0000   0.0000   0.3559
   2.000   0.3256   0.04021   0.00906  -0.0284  1.0000  1.0000  -1.0777   0.0000   0.0000   0.0000   0.3365
   2.500   0.3715   0.04083   0.01040  -0.0271  1.0000  1.0000  -1.3985   0.0000   0.0000   0.0000   0.3220
   3.000   0.4165   0.04161   0.01243  -0.0258  1.0000  1.0000  -1.7152   0.0000   0.0000   0.0000   0.3109
   3.500   0.4605   0.04261   0.01509  -0.0246  1.0000  1.0000  -2.0113   0.0000   0.0000   0.0000   0.3021
   4.000   0.5037   0.04389   0.01873  -0.0236  1.0000  1.0000  -2.2604   0.0000   0.0000   0.0000   0.2953
   4.500   0.5459   0.04587   0.02391  -0.0241  1.0000  1.0000  -2.4034   0.0000   0.0000   0.0000   0.2925
   5.000   0.5565   0.05221   0.03171  -0.0324  1.0000  1.0000  -2.2945   0.0000   0.0000   0.0000   0.3063
   5.500   0.5556   0.06057   0.03959  -0.0418  1.0000  1.0000  -2.1262   0.0000   0.0000   0.0000   0.3232
   6.000   0.5625   0.06845   0.04719  -0.0491  1.0000  1.0000  -1.9954   0.0000   0.0000   0.0000   0.3349
   6.500   0.5733   0.07607   0.05464  -0.0547  1.0000  1.0000  -1.8943   0.0000   0.0000   0.0000   0.3429
   7.000   0.5862   0.08357   0.06205  -0.0594  1.0000  1.0000  -1.8131   0.0000   0.0000   0.0000   0.3485
   7.500   0.6351   0.09517   0.07385  -0.0727  0.9570  1.0000  -1.7502   0.0000   0.0000   0.0000   0.3613
   8.000   0.6699   0.10532   0.08415  -0.0808  0.9301  1.0000  -1.7006   0.0000   0.0000   0.0000   0.3670
   8.500   0.6842   0.11326   0.09201  -0.0839  0.9372  1.0000  -1.6518   0.0000   0.0000   0.0000   0.3688
   9.000   0.6766   0.11804   0.09661  -0.0817  0.9683  1.0000  -1.5987   0.0000   0.0000   0.0000   0.3666
   9.500   0.6614   0.12094   0.09929  -0.0768  1.0000  1.0000  -1.5459   0.0000   0.0000   0.0000   0.3618
  10.000   0.6778   0.12838   0.10673  -0.0800  1.0000  1.0000  -1.5284   0.0000   0.0000   0.0000   0.3633
  10.500   0.6946   0.13583   0.11419  -0.0831  1.0000  1.0000  -1.5117   0.0000   0.0000   0.0000   0.3646
  11.000   0.7119   0.14326   0.12163  -0.0863  1.0000  1.0000  -1.4953   0.0000   0.0000   0.0000   0.3658
  11.500   0.7295   0.15066   0.12913  -0.0896  1.0000  1.0000  -1.4790   0.0000   0.0000   0.0000   0.3669
  12.000   0.7475   0.15803   0.13653  -0.0929  1.0000  1.0000  -1.4625   0.0000   0.0000   0.0000   0.3680
  12.500   0.7658   0.16538   0.14393  -0.0963  1.0000  1.0000  -1.4457   0.0000   0.0000   0.0000   0.3691
  13.000   0.7844   0.17273   0.15132  -0.0998  1.0000  1.0000  -1.4421   0.0000   0.0000   0.0000   0.3701
  13.500   0.8032   0.18007   0.15880  -0.1034  1.0000  1.0000  -1.4476   0.0000   0.0000   0.0000   0.3711
  14.000   0.8221   0.18740   0.16620  -0.1071  1.0000  1.0000  -1.4505   0.0000   0.0000   0.0000   0.3721
  14.500   0.8412   0.19473   0.17362  -0.1108  1.0000  1.0000  -1.4505   0.0000   0.0000   0.0000   0.3732
  15.000   0.8603   0.20208   0.18111  -0.1146  1.0000  1.0000  -1.4476   0.0000   0.0000   0.0000   0.3741
  15.500   0.8794   0.20944   0.18858  -0.1185  1.0000  1.0000  -1.4427   0.0000   0.0000   0.0000   0.3751
  16.000   0.8986   0.21682   0.19608  -0.1225  1.0000  1.0000  -1.4523   0.0000   0.0000   0.0000   0.3761
  16.500   0.9178   0.22423   0.20365  -0.1265  1.0000  1.0000  -1.4672   0.0000   0.0000   0.0000   0.3771
  17.000   0.9369   0.23166   0.21121  -0.1306  1.0000  1.0000  -1.4782   0.0000   0.0000   0.0000   0.3781
  17.500   0.9559   0.23912   0.21885  -0.1348  1.0000  1.0000  -1.4847   0.0000   0.0000   0.0000   0.3791
  18.000   0.9749   0.24661   0.22648  -0.1390  1.0000  1.0000  -1.4881   0.0000   0.0000   0.0000   0.3800
  18.500   0.9937   0.25411   0.23413  -0.1433  1.0000  1.0000  -1.4882   0.0000   0.0000   0.0000   0.3810
  19.000   1.0125   0.26164   0.24182  -0.1477  1.0000  1.0000  -1.5098   0.0000   0.0000   0.0000   0.3820
  19.500   1.0311   0.26920   0.24961  -0.1521  1.0000  1.0000  -1.5282   0.0000   0.0000   0.0000   0.3829
  20.000   1.0496   0.27680   0.25737  -0.1566  1.0000  1.0000  -1.5424   0.0000   0.0000   0.0000   0.3839
  20.500   1.0679   0.28443   0.26517  -0.1611  1.0000  1.0000  -1.5523   0.0000   0.0000   0.0000   0.3848
  21.000   1.0861   0.29209   0.27301  -0.1657  1.0000  1.0000  -1.5582   0.0000   0.0000   0.0000   0.3858
  21.500   1.1040   0.29979   0.28097  -0.1703  1.0000  1.0000  -1.5639   0.0000   0.0000   0.0000   0.3867
  22.000   1.1218   0.30752   0.28889  -0.1750  1.0000  1.0000  -1.5905   0.0000   0.0000   0.0000   0.3876
  22.500   1.1450   0.31099   0.29263  -0.1815  0.9841  1.0000  -1.6179   0.0000   0.0000   0.0000   0.3892
  23.000   1.1851   0.32167   0.30366  -0.1922  0.9218  1.0000  -1.6598   0.0000   0.0000   0.0000   0.3919
  23.500   1.2151   0.33023   0.31254  -0.1991  0.8684  1.0000  -1.6878   0.0000   0.0000   0.0000   0.3928
  24.000   1.2459   0.34532   0.32787  -0.2057  0.8177  1.0000  -1.7143   0.0000   0.0000   0.0000   0.3932
  24.500   1.2629   0.34449   0.32722  -0.2090  0.7762  1.0000  -1.7469   0.0000   0.0000   0.0000   0.3929
  25.000   1.2915   0.36359   0.34655  -0.2146  0.7337  1.0000  -1.7969   0.0000   0.0000   0.0000   0.3928
  25.500   1.3051   0.36251   0.34568  -0.2176  0.7013  1.0000  -1.8204   0.0000   0.0000   0.0000   0.3925
  26.000   1.3210   0.36585   0.34919  -0.2209  0.6675  1.0000  -1.8441   0.0000   0.0000   0.0000   0.3922
  26.500   1.3388   0.37318   0.35672  -0.2247  0.6345  1.0000  -1.8676   0.0000   0.0000   0.0000   0.3919
  27.000   1.3570   0.38297   0.36672  -0.2285  0.6037  1.0000  -1.8892   0.0000   0.0000   0.0000   0.3916
  27.500   1.3743   0.39299   0.37694  -0.2323  0.5754  1.0000  -1.9289   0.0000   0.0000   0.0000   0.3913
  28.000   1.3894   0.40027   0.38446  -0.2359  0.5495  1.0000  -1.9671   0.0000   0.0000   0.0000   0.3912
  28.500   1.4019   0.40344   0.38778  -0.2395  0.5261  1.0000  -1.9963   0.0000   0.0000   0.0000   0.3912
  29.000   1.4132   0.40536   0.38985  -0.2432  0.5046  1.0000  -2.0194   0.0000   0.0000   0.0000   0.3914
  29.500   1.4247   0.40869   0.39332  -0.2471  0.4846  1.0000  -2.0399   0.0000   0.0000   0.0000   0.3916
  30.000   1.4370   0.41427   0.39912  -0.2511  0.4657  1.0000  -2.0595   0.0000   0.0000   0.0000   0.3918


