  
       XFOIL         Version 6.99
  
 Calculated polar for: pane                                            
  
 1 1 Reynolds number fixed          Mach number fixed         
  
 xtrf =   1.000 (top)        1.000 (bottom)  
 Mach =   0.000     Re =     0.003 e 6     Ncrit =   9.000  9.000
  
   alpha    CL        CD       CDp       CM     Top_Xtr  Bot_Xtr  Top_Itr  Bot_Itr
  ------ -------- --------- --------- -------- -------- -------- -------- --------
  -9.000  -0.2883   0.11004   0.08909  -0.0041   1.0000   1.0000   1.0000 116.0000
  -8.000  -0.2518   0.10092   0.07706  -0.0083   1.0000   1.0000   1.0000 116.0000
  -7.000  -0.2165   0.09225   0.06639  -0.0121   1.0000   1.0000   1.0000 116.0000
  -6.000  -0.1825   0.08418   0.05702  -0.0153   1.0000   1.0000   1.0000 116.0000
  -5.000  -0.1508   0.07680   0.04886  -0.0179   1.0000   1.0000   1.0000 116.0000
  -4.000  -0.1233   0.07026   0.04213  -0.0195   1.0000   1.0000   1.0000 116.0000
  -3.000  -0.1034   0.06456   0.03674  -0.0195   1.0000   1.0000   1.0000 116.0000
  -2.000  -0.0916   0.05982   0.03253  -0.0185   1.0000   1.0000   1.0000 116.0000
  -1.000   0.0176   0.05686   0.02688  -0.0388   1.0000   1.0000   1.0000 116.0000
   0.000   0.2202   0.05810   0.02148  -0.0690   1.0000   1.0000   1.0000 116.0000
   1.000   0.3585   0.06045   0.01818  -0.0764   1.0000   1.0000   1.0000 116.0000
   2.000   0.4569   0.06280   0.01655  -0.0748   1.0000   1.0000   1.0000 116.0000
   3.000   0.5395   0.06567   0.01664  -0.0721   1.0000   1.0000   1.0000 116.0000
   4.000   0.6136   0.06957   0.01881  -0.0704   1.0000   1.0000   1.0000 116.0000
   5.000   0.6788   0.07486   0.02327  -0.0698   1.0000   1.0000   1.0000 116.0000
   6.000   0.7341   0.08197   0.03020  -0.0705   1.0000   1.0000   1.0000 116.0000
   7.000   0.7784   0.09136   0.04000  -0.0731   1.0000   1.0000   1.0000 116.0000
   8.000   0.8121   0.10329   0.05294  -0.0780   1.0000   1.0000   1.0000 116.0000
   9.000   0.8379   0.11751   0.06909  -0.0851   1.0000   1.0000   1.0000 116.0000
  10.000   0.8604   0.13315   0.08811  -0.0939   1.0000   1.0000   1.0000 116.0000
  11.000   0.8843   0.14920   0.10950  -0.1035   1.0000   1.0000   1.0000 116.0000
  12.000   0.9115   0.16500   0.13279  -0.1132   1.0000   1.0000   1.0000 116.0000
  13.000   0.9421   0.18038   0.15767  -0.1229   1.0000   1.0000   1.0000 116.0000
  14.000   0.9756   0.19537   0.18403  -0.1325   1.0000   1.0000   1.0000 116.0000
  15.000   1.0108   0.21007   0.21181  -0.1419   1.0000   1.0000   1.0000 116.0000
  16.000   1.0472   0.22462   0.24100  -0.1513   1.0000   1.0000   1.0000 116.0000
  17.000   1.0840   0.23904   0.27165  -0.1606   1.0000   1.0000   1.0000 116.0000
  18.000   1.1210   0.25339   0.30374  -0.1701   1.0000   1.0000   1.0000 116.0000
  19.000   1.1578   0.26772   0.33732  -0.1796   1.0000   1.0000   1.0000 116.0000
  20.000   1.1942   0.28206   0.37235  -0.1892   1.0000   1.0000   1.0000 116.0000
