  
       XFOIL         Version 6.99
  
 Calculated polar for: pane                                            
  
 1 1 Reynolds number fixed          Mach number fixed         
  
 xtrf =   1.000 (top)        1.000 (bottom)  
 Mach =   0.000     Re =     0.005 e 6     Ncrit =   9.000  9.000
  
   alpha    CL        CD       CDp       CM     Top_Xtr  Bot_Xtr  Top_Itr  Bot_Itr
  ------ -------- --------- --------- -------- -------- -------- -------- --------
  -5.000  -0.2899   0.06573   0.03880   0.0026   1.0000   0.9905   1.0000 264.8284
  -4.000  -0.2458   0.05659   0.02981  -0.0046   1.0000   1.0000   1.0000 266.0000
  -3.000  -0.2180   0.04918   0.02308  -0.0091   1.0000   1.0000   1.0000 266.0000
  -2.000  -0.1757   0.04341   0.01718  -0.0202   1.0000   1.0000   1.0000 266.0000
  -1.000   0.0185   0.04299   0.00764  -0.0433   1.0000   1.0000   1.0000 266.0000
   0.000   0.1218   0.04305   0.00481  -0.0410   1.0000   1.0000   1.0000 266.0000
   1.000   0.2197   0.04357   0.00454  -0.0386   1.0000   1.0000   1.0000 266.0000
   2.000   0.3145   0.04459   0.00627  -0.0358   1.0000   1.0000   1.0000 266.0000
   3.000   0.4078   0.04615   0.01021  -0.0324   1.0000   1.0000   1.0000 266.0000
   4.000   0.5151   0.04847   0.01861  -0.0310   1.0000   1.0000   1.0000 266.0000
   5.000   0.5339   0.06148   0.03295  -0.0469   1.0000   1.0000   1.0000 266.0000
   6.000   0.5536   0.07543   0.04645  -0.0580   1.0000   1.0000   1.0000 266.0000
   7.000   0.5823   0.08925   0.06031  -0.0663   1.0000   1.0000   1.0000 266.0000
   8.000   0.6263   0.10464   0.07661  -0.0765   0.9871   1.0000   2.6523 266.0000
   9.000   0.6482   0.11712   0.09085  -0.0798   1.0000   1.0000   1.0000 266.0000
  10.000   0.6843   0.13086   0.10810  -0.0863   1.0000   1.0000   1.0000 266.0000
