  
       XFOIL         Version 6.99
  
 Calculated polar for: arc0401                                         
  
 1 1 Reynolds number fixed          Mach number fixed         
  
 xtrf =   1.000 (top)        1.000 (bottom)  
 Mach =   0.000     Re =     0.005 e 6     Ncrit =   9.000  9.000
  
   alpha    CL        CD       CDp       CM     Top_Xtr  Bot_Xtr  Top_Itr  Bot_Itr
  ------ -------- --------- --------- -------- -------- -------- -------- --------
  -5.000  -0.1899   0.06728   0.04113  -0.0213   1.0000   1.0000   1.0000 160.0000
  -4.000  -0.1624   0.06006   0.03394  -0.0226   1.0000   0.9973   1.0000 159.5875
  -3.000  -0.1361   0.05358   0.02777  -0.0237   1.0000   1.0000   1.0000 160.0000
  -2.000  -0.1244   0.04814   0.02307  -0.0220   1.0000   1.0000   1.0000 160.0000
  -1.000  -0.0388   0.04406   0.01817  -0.0394   1.0000   1.0000   1.0000 160.0000
   0.000   0.2250   0.04569   0.01036  -0.0802   1.0000   1.0000   1.0000 160.0000
   1.000   0.3264   0.04677   0.00811  -0.0782   1.0000   1.0000   1.0000 160.0000
   2.000   0.4191   0.04838   0.00869  -0.0758   1.0000   1.0000   1.0000 160.0000
   3.000   0.5075   0.05065   0.01127  -0.0732   1.0000   1.0000   1.0000 160.0000
   4.000   0.5928   0.05367   0.01598  -0.0701   1.0000   1.0000   1.0000 160.0000
   5.000   0.6824   0.05743   0.02363  -0.0667   1.0000   1.0000   1.0000 160.0000
   6.000   0.7093   0.07174   0.04111  -0.0780   1.0000   1.0000   1.0000 160.0000
   7.000   0.7103   0.09031   0.05938  -0.0911   1.0000   1.0000   1.0000 160.0000
   8.000   0.7287   0.10720   0.07655  -0.1002   1.0000   1.0000   1.0000 160.0000
   9.000   0.7539   0.12343   0.09397  -0.1075   1.0000   1.0000   1.0000 160.0000
  10.000   0.7831   0.13922   0.11220  -0.1143   1.0000   1.0000   1.0000 160.0000
