  
       XFOIL         Version 6.99
  
 Calculated polar for: pane                                            
  
 1 1 Reynolds number fixed          Mach number fixed         
  
 xtrf =   1.000 (top)        1.000 (bottom)  
 Mach =   0.000     Re =     0.003 e 6     Ncrit =   9.000  9.000
  
   alpha    CL        CD       CDp       CM     Top_Xtr  Bot_Xtr  Top_Itr  Bot_Itr
  ------ -------- --------- --------- -------- -------- -------- -------- --------
  -5.000  -0.2514   0.07668   0.04131  -0.0128   1.0000   1.0000   1.0000 266.0000
  -4.000  -0.2250   0.06894   0.03394  -0.0160   1.0000   1.0000   1.0000 266.0000
  -3.000  -0.2078   0.06210   0.02801  -0.0179   1.0000   1.0000   1.0000 266.0000
  -2.000  -0.1420   0.05693   0.02169  -0.0334   1.0000   1.0000   1.0000 266.0000
  -1.000   0.0532   0.05648   0.01178  -0.0594   1.0000   1.0000   1.0000 266.0000
   0.000   0.1604   0.05669   0.00774  -0.0587   1.0000   1.0000   1.0000 266.0000
   1.000   0.2576   0.05744   0.00667  -0.0568   1.0000   1.0000   1.0000 266.0000
   2.000   0.3500   0.05879   0.00776  -0.0544   1.0000   1.0000   1.0000 266.0000
   3.000   0.4387   0.06080   0.01085  -0.0517   1.0000   1.0000   1.0000 266.0000
   4.000   0.5248   0.06360   0.01616  -0.0488   1.0000   1.0000   1.0000 266.0000
   5.000   0.6107   0.06755   0.02468  -0.0469   1.0000   1.0000   1.0000 266.0000
   6.000   0.6570   0.07844   0.03980  -0.0554   1.0000   1.0000   1.0000 266.0000
   7.000   0.6616   0.09501   0.05627  -0.0682   1.0000   1.0000   1.0000 266.0000
   8.000   0.6816   0.11039   0.07270  -0.0782   1.0000   1.0000   1.0000 266.0000
   9.000   0.7098   0.12498   0.08986  -0.0869   1.0000   1.0000   1.0000 266.0000
  10.000   0.7427   0.13902   0.10822  -0.0949   1.0000   1.0000   1.0000 266.0000
  11.000   0.7784   0.15269   0.12792  -0.1027   1.0000   1.0000   1.0000 266.0000
  12.000   0.8159   0.16611   0.14910  -0.1105   1.0000   1.0000   1.0000 266.0000
  13.000   0.8544   0.17935   0.17180  -0.1184   1.0000   1.0000   1.0000 266.0000
  14.000   0.8934   0.19250   0.19605  -0.1263   1.0000   1.0000   1.0000 266.0000
  15.000   0.9324   0.20558   0.22185  -0.1345   1.0000   1.0000   1.0000 266.0000
